ieee14.m
% Type:
% 1 - PQ
% 2 - PV
% 3 - folga

%         Bus      Type V    Degree Pg     Qg     Pd     Qd   Gs   Bs  Qmin    Qmax
bus  = [   1        3   1.060   0     0    0      0       0   0    0    0       0;
           2        2   1.045   0   40.0 42.40  21.7    12.7  0    0  -40      50;
           3        2   1.010   0     0  23.40  94.2    19.0  0    0    0      40;
           4        1   1.000   0     0    0    47.8    -3.9  0    0    0       0;
           5        1   1.000   0     0    0     7.6     1.6  0    0    0       0;
           6        2   1.070   0     0  12.2   11.2     7.5  0    0  -6.0     24.0;
           7        1   1.000   0     0    0      0       0   0    0    0       0;
           8        2   1.090   0     0  17.40    0       0   0    0  -6.0     24.0;
           9        1   1.000   0     0    0     29.5   16.6  0    19   0       0;
           10       1   1.000   0     0    0     9.0    5.8   0    0    0       0;
           11       1   1.000   0     0    0     3.5    1.8   0    0    0       0;
           12       1   1.000   0     0    0     6.1    1.6   0    0    0       0;
           13       1   1.000   0     0    0     13.5   5.8   0    0    0       0;
           14       1   1.000   0     0    0     14.9   5.0   0    0    0       0];
       

%        from to   R       X     b      a    shift
line = [  1   2    0.01938   0.05917  0.02640    1      0;
          2   3    0.04699   0.19797  0.02190    1      0;
          2   4    0.05811   0.17632  0.01870    1      0;
          1   5    0.05403   0.22304  0.02460    1      0;
          2   5    0.05695   0.17388  0.01700    1      0;
          3   4    0.06701   0.17103  0.01730    1      0;
          4   5    0.01335   0.04211  0.00640    1      0;
          5   6    0.00000   0.25202  0.00000    0.932  0;
          4   7    0.00000   0.20912  0.00000    0.978  0;
          7   8    0.00000   0.17615  0.00000    1      0;
          4   9    0.00000   0.55618  0.00000    0.969  0;
          7   9    0.00000   0.11001  0.00000    1      0;
          9   10   0.03181   0.08450  0.00000    1      0;
          6   11   0.09498   0.19890  0.00000    1      0;
          6   12   0.12291   0.25581  0.00000    1      0;
          6   13   0.06615   0.13027  0.00000    1      0;
          9   14   0.12711   0.27038  0.00000    1      0;
          10  11   0.08205   0.19207  0.00000    1      0;
          12  13   0.22092   0.19988  0.00000    1      0;
          13  14   0.17093   0.34802  0.00000    1      0];